<NUMBER OF ZONES> 
<NUMBER OF NODES> 4
<FIRST THRU NODE> 1
<NUMBER OF LINKS> 6
<END OF METADATA>
~  Init node  Term node  Capacity  Length  Free Flow Time  B  Power  Speed limit  Toll  Type  ;
	2	1	40000.0	0.354117125	0.016666666666666666	999.0	0.0	0.0	0.0	0.0	;
	2	3	40000.0	0.323705625	0.03333333333333333	999.0	0.0	0.0	0.0	0.0	;
	1	2	40000.0	0.354117125	0.016666666666666666	999.0	0.0	0.0	0.0	0.0	;
	3	2	40000.0	0.323705625	0.03333333333333333	999.0	0.0	0.0	0.0	0.0	;
	3	4	40000.0	0.751725375	0.05	999.0	0.0	0.0	0.0	0.0	;
	4	3	40000.0	0.751725375	0.05	999.0	0.0	0.0	0.0	0.0	;
