<NUMBER OF ZONES> 
<NUMBER OF NODES> 35
<FIRST THRU NODE> 1
<NUMBER OF LINKS> 68
<END OF METADATA>
~  Init node  Term node  Capacity  Length  Free Flow Time  B  Power  Speed limit  Toll  Type  ;
	2	1	24000.0	0.45713162500000004	0.03333333333333333	999.0	0.0	0.0	0.0	0.0	;
	2	3	24000.0	0.38351912499999996	0.016666666666666666	999.0	0.0	0.0	0.0	0.0	;
	1	2	24000.0	0.45713162500000004	0.03333333333333333	999.0	0.0	0.0	0.0	0.0	;
	3	2	24000.0	0.38351912499999996	0.016666666666666666	999.0	0.0	0.0	0.0	0.0	;
	3	4	24000.0	0.454308125	0.016666666666666666	999.0	0.0	0.0	0.0	0.0	;
	4	3	24000.0	0.454308125	0.016666666666666666	999.0	0.0	0.0	0.0	0.0	;
	4	5	24000.0	0.4213654375	0.016666666666666666	999.0	0.0	0.0	0.0	0.0	;
	5	4	24000.0	0.4213654375	0.016666666666666666	999.0	0.0	0.0	0.0	0.0	;
	5	6	24000.0	0.454385625	0.03333333333333333	999.0	0.0	0.0	0.0	0.0	;
	6	5	24000.0	0.454385625	0.03333333333333333	999.0	0.0	0.0	0.0	0.0	;
	6	7	24000.0	0.7106621875000001	0.016666666666666666	999.0	0.0	0.0	0.0	0.0	;
	7	6	24000.0	0.7106621875000001	0.016666666666666666	999.0	0.0	0.0	0.0	0.0	;
	7	8	24000.0	0.517320125	0.03333333333333333	999.0	0.0	0.0	0.0	0.0	;
	8	7	24000.0	0.517320125	0.03333333333333333	999.0	0.0	0.0	0.0	0.0	;
	8	9	24000.0	0.5947675625	0.03333333333333333	999.0	0.0	0.0	0.0	0.0	;
	9	8	24000.0	0.5947675625	0.03333333333333333	999.0	0.0	0.0	0.0	0.0	;
	9	10	24000.0	0.36070575	0.03333333333333333	999.0	0.0	0.0	0.0	0.0	;
	10	9	24000.0	0.36070575	0.03333333333333333	999.0	0.0	0.0	0.0	0.0	;
	10	11	24000.0	0.510416125	0.016666666666666666	999.0	0.0	0.0	0.0	0.0	;
	11	10	24000.0	0.510416125	0.016666666666666666	999.0	0.0	0.0	0.0	0.0	;
	11	12	24000.0	0.624031125	0.016666666666666666	999.0	0.0	0.0	0.0	0.0	;
	12	11	24000.0	0.624031125	0.016666666666666666	999.0	0.0	0.0	0.0	0.0	;
	12	13	24000.0	0.2980418125	0.03333333333333333	999.0	0.0	0.0	0.0	0.0	;
	13	12	24000.0	0.2980418125	0.03333333333333333	999.0	0.0	0.0	0.0	0.0	;
	13	14	24000.0	0.3240500625	0.016666666666666666	999.0	0.0	0.0	0.0	0.0	;
	14	13	24000.0	0.3240500625	0.016666666666666666	999.0	0.0	0.0	0.0	0.0	;
	14	15	24000.0	0.43653806250000005	0.016666666666666666	999.0	0.0	0.0	0.0	0.0	;
	15	14	24000.0	0.43653806250000005	0.016666666666666666	999.0	0.0	0.0	0.0	0.0	;
	15	16	24000.0	0.41997725	0.03333333333333333	999.0	0.0	0.0	0.0	0.0	;
	16	15	24000.0	0.41997725	0.03333333333333333	999.0	0.0	0.0	0.0	0.0	;
	16	17	24000.0	0.38085575	0.016666666666666666	999.0	0.0	0.0	0.0	0.0	;
	17	16	24000.0	0.38085575	0.016666666666666666	999.0	0.0	0.0	0.0	0.0	;
	17	18	24000.0	0.39556856250000005	0.016666666666666666	999.0	0.0	0.0	0.0	0.0	;
	18	17	24000.0	0.39556856250000005	0.016666666666666666	999.0	0.0	0.0	0.0	0.0	;
	18	19	24000.0	0.348156	0.016666666666666666	999.0	0.0	0.0	0.0	0.0	;
	19	18	24000.0	0.348156	0.016666666666666666	999.0	0.0	0.0	0.0	0.0	;
	19	20	24000.0	0.3607233125	0.03333333333333333	999.0	0.0	0.0	0.0	0.0	;
	20	19	24000.0	0.3607233125	0.03333333333333333	999.0	0.0	0.0	0.0	0.0	;
	20	21	24000.0	0.46368175	0.03333333333333333	999.0	0.0	0.0	0.0	0.0	;
	21	20	24000.0	0.46368175	0.03333333333333333	999.0	0.0	0.0	0.0	0.0	;
	21	22	24000.0	0.48657874999999995	0.03333333333333333	999.0	0.0	0.0	0.0	0.0	;
	22	21	24000.0	0.48657874999999995	0.03333333333333333	999.0	0.0	0.0	0.0	0.0	;
	22	23	24000.0	0.389710125	0.03333333333333333	999.0	0.0	0.0	0.0	0.0	;
	23	22	24000.0	0.389710125	0.03333333333333333	999.0	0.0	0.0	0.0	0.0	;
	23	24	24000.0	0.2508145625	0.03333333333333333	999.0	0.0	0.0	0.0	0.0	;
	24	23	24000.0	0.2508145625	0.03333333333333333	999.0	0.0	0.0	0.0	0.0	;
	24	25	24000.0	0.248948	0.03333333333333333	999.0	0.0	0.0	0.0	0.0	;
	25	24	24000.0	0.248948	0.03333333333333333	999.0	0.0	0.0	0.0	0.0	;
	25	26	24000.0	0.24130443750000002	0.03333333333333333	999.0	0.0	0.0	0.0	0.0	;
	26	25	24000.0	0.24130443750000002	0.03333333333333333	999.0	0.0	0.0	0.0	0.0	;
	26	27	24000.0	0.2547775625	0.016666666666666666	999.0	0.0	0.0	0.0	0.0	;
	27	26	24000.0	0.2547775625	0.016666666666666666	999.0	0.0	0.0	0.0	0.0	;
	27	28	24000.0	0.33741675	0.016666666666666666	999.0	0.0	0.0	0.0	0.0	;
	28	27	24000.0	0.33741675	0.016666666666666666	999.0	0.0	0.0	0.0	0.0	;
	28	29	24000.0	0.38171768749999996	0.03333333333333333	999.0	0.0	0.0	0.0	0.0	;
	29	28	24000.0	0.38171768749999996	0.03333333333333333	999.0	0.0	0.0	0.0	0.0	;
	29	30	24000.0	0.3776510625	0.03333333333333333	999.0	0.0	0.0	0.0	0.0	;
	30	29	24000.0	0.3776510625	0.03333333333333333	999.0	0.0	0.0	0.0	0.0	;
	30	31	24000.0	0.247515875	0.016666666666666666	999.0	0.0	0.0	0.0	0.0	;
	31	30	24000.0	0.247515875	0.016666666666666666	999.0	0.0	0.0	0.0	0.0	;
	31	32	24000.0	0.2946863125	0.016666666666666666	999.0	0.0	0.0	0.0	0.0	;
	32	31	24000.0	0.2946863125	0.016666666666666666	999.0	0.0	0.0	0.0	0.0	;
	32	33	24000.0	0.2962425625	0.03333333333333333	999.0	0.0	0.0	0.0	0.0	;
	33	32	24000.0	0.2962425625	0.03333333333333333	999.0	0.0	0.0	0.0	0.0	;
	33	34	24000.0	0.311579	0.03333333333333333	999.0	0.0	0.0	0.0	0.0	;
	34	33	24000.0	0.311579	0.03333333333333333	999.0	0.0	0.0	0.0	0.0	;
	34	35	24000.0	0.424608375	0.03333333333333333	999.0	0.0	0.0	0.0	0.0	;
	35	34	24000.0	0.424608375	0.03333333333333333	999.0	0.0	0.0	0.0	0.0	;
