<NUMBER OF ZONES> 
<NUMBER OF NODES> 2
<FIRST THRU NODE> 1
<NUMBER OF LINKS> 2
<END OF METADATA>
~  Init node  Term node  Capacity  Length  Free Flow Time  B  Power  Speed limit  Toll  Type  ;
	2	1	40000.0	0.43369300000000005	0.03333333333333333	999.0	0.0	0.0	0.0	0.0	;
	1	2	40000.0	0.43369300000000005	0.03333333333333333	999.0	0.0	0.0	0.0	0.0	;
