<NUMBER OF ZONES> 2
<TOTAL OD FLOW>   6000.0
<END OF METADATA>

Origin 	1 
    1 :      0.0;     2 :     60000.0;

Origin 	2 
    1 :      0.0;     2 :     0.0;