<NUMBER OF ZONES> 8658
<NUMBER OF NODES> 4
<FIRST THRU NODE> 1
<NUMBER OF LINKS> 6
<END OF METADATA>
~  Init node  Term node  Capacity  Length  Free Flow Time  B  Power  Speed limit  Toll  Type  ;
	2	1	40000	566.5874	60	999	0	0	0	0	;
	1	2	40000	566.5874	60	999	0	0	0	0	;
	3	2	40000	517.929	120	999	0	0	0	0	;
	2	3	40000	517.929	120	999	0	0	0	0	;
	4	3	40000	1202.7606	180	999	0	0	0	0	;
	3	4	40000	1202.7606	180	999	0	0	0	0	;
