<NUMBER OF ZONES> 8658
<NUMBER OF NODES> 1351
<FIRST THRU NODE> 1
<NUMBER OF LINKS> 3137
<END OF METADATA>
~  Init node  Term node  Capacity  Length  Free Flow Time  B  Power  Speed limit  Toll  Type  ;
	4	1	29568	172.82	11.0454	999	0	0	0	0	;
	3	2	29568	9.1825	0.58688	999	0	0	0	0	;
	9	2	10560	121.8075	10.8991	999	0	0	0	0	;
	1	3	21120	51.0049	4.5638	999	0	0	0	0	;
	2	3	10560	9.1825	0.82163	999	0	0	0	0	;
	6	4	16896	87.8844	5.6169	999	0	0	0	0	;
	7	4	44352	370.082	23.6529	999	0	0	0	0	;
	1	5	14784	229.286	14.6543	999	0	0	0	0	;
	2	5	29568	246.6109	15.7616	999	0	0	0	0	;
	37	5	33792	768.5662	49.1211	999	0	0	0	0	;
	5	6	59136	29.6338	1.894	999	0	0	0	0	;
	14	7	44352	616.8103	39.422	999	0	0	0	0	;
	3	8	21120	118.4332	10.5971	999	0	0	0	0	;
	8	9	10560	10.6468	0.95265	999	0	0	0	0	;
	11	9	31680	67.5097	6.0406	999	0	0	0	0	;
	8	10	21120	69.0434	6.1778	999	0	0	0	0	;
	11	10	10560	13.2036	1.1814	999	0	0	0	0	;
	12	10	10560	203.3026	18.191	999	0	0	0	0	;
	10	11	10560	13.2036	1.1814	999	0	0	0	0	;
	43	11	31680	886.5963	79.3306	999	0	0	0	0	;
	10	12	10560	203.3026	18.191	999	0	0	0	0	;
	13	12	10560	45.526	4.0736	999	0	0	0	0	;
	12	13	10560	45.526	4.0736	999	0	0	0	0	;
	17	13	10560	78.1923	6.9965	999	0	0	0	0	;
	15	14	10560	29.2941	2.6212	999	0	0	0	0	;
	16	14	44352	222.8851	14.2452	999	0	0	0	0	;
	6	15	59136	903.3677	57.7366	999	0	0	0	0	;
	14	15	10560	29.2941	2.6212	999	0	0	0	0	;
	34	15	10560	407.3217	36.4462	999	0	0	0	0	;
	36	15	10560	339.1231	30.344	999	0	0	0	0	;
	39	15	10560	401.1498	35.894	999	0	0	0	0	;
	18	16	10560	27.6685	2.4757	999	0	0	0	0	;
	22	16	10560	577.1978	51.6463	999	0	0	0	0	;
	24	16	44352	897.2314	57.3444	999	0	0	0	0	;
	13	17	10560	78.1923	6.9965	999	0	0	0	0	;
	19	17	10560	62.164	5.5623	999	0	0	0	0	;
	21	17	10560	115.9269	10.3729	999	0	0	0	0	;
	15	18	59136	213.928	13.6727	999	0	0	0	0	;
	16	18	10560	27.6685	2.4757	999	0	0	0	0	;
	20	18	10560	54.6478	4.8898	999	0	0	0	0	;
	17	19	10560	62.164	5.5623	999	0	0	0	0	;
	23	19	10560	64.7344	5.7923	999	0	0	0	0	;
	18	20	10560	54.6478	4.8898	999	0	0	0	0	;
	26	20	10560	123.8262	11.0797	999	0	0	0	0	;
	37	21	10560	267.3034	23.9177	999	0	0	0	0	;
	54	21	10560	391.1888	35.0027	999	0	0	0	0	;
	55	21	10560	405.4847	36.2818	999	0	0	0	0	;
	18	22	59136	586.7051	37.4979	999	0	0	0	0	;
	48	22	10560	289.6169	25.9142	999	0	0	0	0	;
	19	23	10560	64.7344	5.7923	999	0	0	0	0	;
	41	23	10560	268.3978	24.0156	999	0	0	0	0	;
	27	24	10560	72.7205	6.5069	999	0	0	0	0	;
	28	24	44352	516.9675	33.0407	999	0	0	0	0	;
	29	24	10560	437.5585	39.1517	999	0	0	0	0	;
	22	25	59136	320.6811	20.4956	999	0	0	0	0	;
	24	25	10560	20.0903	1.7976	999	0	0	0	0	;
	20	26	10560	123.8262	11.0797	999	0	0	0	0	;
	36	26	10560	168.8945	15.1123	999	0	0	0	0	;
	25	27	59136	70.1948	4.4863	999	0	0	0	0	;
	52	27	10560	340.7162	30.4865	999	0	0	0	0	;
	32	28	10560	998.2172	89.3182	999	0	0	0	0	;
	38	28	44352	1409.723	90.0991	999	0	0	0	0	;
	27	29	59136	368.3214	23.5404	999	0	0	0	0	;
	63	29	10560	295.3429	26.4266	999	0	0	0	0	;
	28	30	10560	17.1292	1.5327	999	0	0	0	0	;
	29	30	59136	79.3274	5.07	999	0	0	0	0	;
	9	31	10560	904.705	80.9509	999	0	0	0	0	;
	30	32	59136	999.4235	63.8758	999	0	0	0	0	;
	35	32	10560	64.7014	5.7893	999	0	0	0	0	;
	4	33	33792	753.6758	42.1482	999	0	0	0	0	;
	21	33	16896	193.055	10.7963	999	0	0	0	0	;
	31	34	10560	81.6875	7.3092	999	0	0	0	0	;
	50	34	10560	154.4729	13.8219	999	0	0	0	0	;
	45	35	10560	343.9871	30.7792	999	0	0	0	0	;
	49	35	10560	330.6397	29.5849	999	0	0	0	0	;
	26	36	10560	168.8945	15.1123	999	0	0	0	0	;
	40	36	10560	64.7651	5.795	999	0	0	0	0	;
	143	37	16896	1062.6382	59.4265	999	0	0	0	0	;
	206	37	16896	1264.4003	70.7098	999	0	0	0	0	;
	44	38	10560	83.3844	7.461	999	0	0	0	0	;
	46	38	44352	880.1801	56.2546	999	0	0	0	0	;
	59	38	10560	643.7108	57.5977	999	0	0	0	0	;
	34	39	10560	137.5563	12.3082	999	0	0	0	0	;
	62	39	10560	160.9729	14.4035	999	0	0	0	0	;
	60	40	10560	124.8811	11.1741	999	0	0	0	0	;
	70	40	10560	524.5212	46.9329	999	0	0	0	0	;
	81	40	10560	523.7297	46.8621	999	0	0	0	0	;
	23	41	10560	268.3978	24.0156	999	0	0	0	0	;
	79	41	10560	317.3748	28.398	999	0	0	0	0	;
	32	42	59136	406.3661	25.9719	999	0	0	0	0	;
	38	42	14784	19.7307	1.261	999	0	0	0	0	;
	31	43	10560	148.502	13.2876	999	0	0	0	0	;
	50	43	31680	79.6704	7.1287	999	0	0	0	0	;
	42	44	44352	91.6004	5.8544	999	0	0	0	0	;
	57	44	10560	79.5917	7.1217	999	0	0	0	0	;
	42	45	14784	14.863	0.94993	999	0	0	0	0	;
	47	46	10560	20.8122	1.8622	999	0	0	0	0	;
	68	46	44352	479.8742	30.67	999	0	0	0	0	;
	46	47	10560	20.8122	1.8622	999	0	0	0	0	;
	53	47	10560	46.0242	4.1181	999	0	0	0	0	;
	59	47	44352	240.6851	15.3828	999	0	0	0	0	;
	40	48	10560	664.3755	59.4468	999	0	0	0	0	;
	45	49	14784	36.6994	2.3456	999	0	0	0	0	;
	82	49	10560	271.4548	24.2891	999	0	0	0	0	;
	56	50	10560	48.5021	4.3399	999	0	0	0	0	;
	62	50	42240	139.2854	12.4629	999	0	0	0	0	;
	25	51	10560	312.3809	27.9511	999	0	0	0	0	;
	48	51	10560	186.917	16.7249	999	0	0	0	0	;
	51	52	10560	11.6103	1.0389	999	0	0	0	0	;
	61	52	31680	49.7418	4.4508	999	0	0	0	0	;
	47	53	10560	46.0242	4.1181	999	0	0	0	0	;
	66	53	10560	83.7147	7.4906	999	0	0	0	0	;
	33	54	16896	207.377	11.5973	999	0	0	0	0	;
	54	55	16896	30.5748	1.7099	999	0	0	0	0	;
	76	55	10560	163.0463	14.589	999	0	0	0	0	;
	90	56	10560	258.357	23.1172	999	0	0	0	0	;
	45	57	10560	88.0269	7.8764	999	0	0	0	0	;
	49	57	10560	88.7509	7.9412	999	0	0	0	0	;
	89	57	10560	271.8428	24.3239	999	0	0	0	0	;
	44	58	44352	514.3534	32.8737	999	0	0	0	0	;
	58	59	44352	47.6541	3.0457	999	0	0	0	0	;
	64	59	10560	96.7548	8.6574	999	0	0	0	0	;
	39	60	10560	212.002	18.9694	999	0	0	0	0	;
	69	61	31680	88.2312	7.8947	999	0	0	0	0	;
	109	62	10560	737.2572	65.9681	999	0	0	0	0	;
	52	63	10560	560.8971	50.1878	999	0	0	0	0	;
	83	63	10560	151.2591	13.5343	999	0	0	0	0	;
	67	64	10560	10.1198	0.9055	999	0	0	0	0	;
	72	64	10560	79.5157	7.1149	999	0	0	0	0	;
	30	65	10560	298.4821	26.7075	999	0	0	0	0	;
	63	65	10560	81.521	7.2943	999	0	0	0	0	;
	53	66	10560	83.7147	7.4906	999	0	0	0	0	;
	72	66	10560	37.0306	3.3134	999	0	0	0	0	;
	58	67	10560	140.1547	12.5407	999	0	0	0	0	;
	64	67	10560	10.1198	0.9055	999	0	0	0	0	;
	95	67	10560	268.2516	24.0025	999	0	0	0	0	;
	88	68	44352	321.5346	20.5501	999	0	0	0	0	;
	51	69	10560	131.2527	11.7442	999	0	0	0	0	;
	75	69	63360	53.0235	4.7444	999	0	0	0	0	;
	74	70	10560	153.1861	13.7067	999	0	0	0	0	;
	47	71	44352	478.6388	30.5911	999	0	0	0	0	;
	68	71	10560	22.3684	2.0015	999	0	0	0	0	;
	66	72	10560	37.0306	3.3134	999	0	0	0	0	;
	67	72	10560	79.9237	7.1514	999	0	0	0	0	;
	99	72	10560	472.2806	42.2586	999	0	0	0	0	;
	70	73	10560	21.4498	1.9193	999	0	0	0	0	;
	75	74	10560	83.583	7.4788	999	0	0	0	0	;
	69	75	63360	53.0235	4.7444	999	0	0	0	0	;
	77	75	10560	138.3015	12.3749	999	0	0	0	0	;
	84	75	63360	117.8459	10.5446	999	0	0	0	0	;
	55	76	10560	163.0463	14.589	999	0	0	0	0	;
	93	76	10560	169.4872	15.1653	999	0	0	0	0	;
	80	77	10560	68.9524	6.1697	999	0	0	0	0	;
	92	77	10560	113.6866	10.1724	999	0	0	0	0	;
	43	78	10560	226.9619	20.308	999	0	0	0	0	;
	56	78	10560	144.2344	12.9058	999	0	0	0	0	;
	41	79	10560	317.3748	28.398	999	0	0	0	0	;
	93	79	10560	146.963	13.1499	999	0	0	0	0	;
	96	79	10560	219.9602	19.6815	999	0	0	0	0	;
	83	80	10560	468.4006	41.9114	999	0	0	0	0	;
	73	81	10560	75.0503	6.7153	999	0	0	0	0	;
	49	82	10560	271.4548	24.2891	999	0	0	0	0	;
	87	82	10560	22.8029	2.0404	999	0	0	0	0	;
	65	83	10560	171.8646	15.378	999	0	0	0	0	;
	105	83	10560	211.5725	18.931	999	0	0	0	0	;
	127	83	10560	953.5027	85.3172	999	0	0	0	0	;
	74	84	10560	94.5735	8.4622	999	0	0	0	0	;
	75	84	63360	117.8459	10.5446	999	0	0	0	0	;
	85	84	10560	133.0342	11.9036	999	0	0	0	0	;
	94	84	63360	76.8585	6.8771	999	0	0	0	0	;
	73	85	10560	104.167	9.3206	999	0	0	0	0	;
	86	85	10560	86.8681	7.7728	999	0	0	0	0	;
	60	86	10560	529.3629	47.3662	999	0	0	0	0	;
	81	86	10560	46.2541	4.1387	999	0	0	0	0	;
	82	87	10560	22.8029	2.0404	999	0	0	0	0	;
	89	87	10560	91.7447	8.2091	999	0	0	0	0	;
	107	87	10560	243.238	21.7644	999	0	0	0	0	;
	91	88	10560	22.0411	1.9722	999	0	0	0	0	;
	124	88	44352	638.78	40.8261	999	0	0	0	0	;
	123	89	10560	615.2544	55.0515	999	0	0	0	0	;
	97	90	10560	98.8214	8.8423	999	0	0	0	0	;
	71	91	59136	320.9403	20.5121	999	0	0	0	0	;
	88	91	10560	22.0411	1.9722	999	0	0	0	0	;
	108	91	10560	214.9017	19.2289	999	0	0	0	0	;
	84	92	10560	203.223	18.1839	999	0	0	0	0	;
	103	92	10560	156.501	14.0033	999	0	0	0	0	;
	76	93	10560	169.4872	15.1653	999	0	0	0	0	;
	79	93	10560	146.963	13.1499	999	0	0	0	0	;
	98	93	10560	97.3767	8.713	999	0	0	0	0	;
	84	94	63360	76.8585	6.8771	999	0	0	0	0	;
	85	94	10560	95.8111	8.573	999	0	0	0	0	;
	118	94	63360	318.1643	28.4686	999	0	0	0	0	;
	57	95	10560	616.5856	55.1706	999	0	0	0	0	;
	67	95	10560	268.2516	24.0025	999	0	0	0	0	;
	123	95	10560	270.5592	24.209	999	0	0	0	0	;
	79	96	10560	219.9602	19.6815	999	0	0	0	0	;
	111	96	10560	203.7283	18.2291	999	0	0	0	0	;
	101	97	10560	67.9081	6.0763	999	0	0	0	0	;
	93	98	10560	97.3767	8.713	999	0	0	0	0	;
	144	98	10560	393.3574	35.1967	999	0	0	0	0	;
	71	99	10560	269.6646	24.129	999	0	0	0	0	;
	117	99	10560	320.8403	28.708	999	0	0	0	0	;
	94	100	10560	133.5783	11.9523	999	0	0	0	0	;
	103	100	10560	122.2404	10.9378	999	0	0	0	0	;
	97	101	10560	67.9081	6.0763	999	0	0	0	0	;
	130	101	10560	525.1915	46.9929	999	0	0	0	0	;
	78	102	10560	284.6808	25.4726	999	0	0	0	0	;
	120	102	10560	177.6232	15.8933	999	0	0	0	0	;
	100	103	10560	122.2404	10.9378	999	0	0	0	0	;
	132	103	10560	325.5176	29.1266	999	0	0	0	0	;
	150	103	10560	313.5236	28.0534	999	0	0	0	0	;
	92	104	10560	536.9857	48.0482	999	0	0	0	0	;
	104	105	10560	14.3364	1.2828	999	0	0	0	0	;
	113	105	21120	38.6976	3.4626	999	0	0	0	0	;
	65	106	10560	1155.7841	103.4169	999	0	0	0	0	;
	112	106	10560	79.0046	7.0691	999	0	0	0	0	;
	87	107	10560	243.238	21.7644	999	0	0	0	0	;
	106	107	10560	45.3541	4.0582	999	0	0	0	0	;
	110	107	10560	8.116	0.7262	999	0	0	0	0	;
	91	108	10560	214.9017	19.2289	999	0	0	0	0	;
	117	108	10560	52.6745	4.7132	999	0	0	0	0	;
	86	109	10560	262.7434	23.5097	999	0	0	0	0	;
	118	109	10560	101.4218	9.075	999	0	0	0	0	;
	106	110	10560	44.5044	3.9821	999	0	0	0	0	;
	107	110	10560	8.116	0.7262	999	0	0	0	0	;
	154	110	10560	274.7595	24.5848	999	0	0	0	0	;
	96	111	10560	203.7283	18.2291	999	0	0	0	0	;
	120	111	10560	101.2607	9.0606	999	0	0	0	0	;
	127	112	10560	266.5553	23.8508	999	0	0	0	0	;
	149	113	10560	254.6533	22.7858	999	0	0	0	0	;
	33	114	50688	800.1555	44.7475	999	0	0	0	0	;
	110	115	10560	45.9553	4.112	999	0	0	0	0	;
	91	116	59136	477.3817	30.5107	999	0	0	0	0	;
	163	116	10560	271.3053	24.2758	999	0	0	0	0	;
	108	117	10560	52.6745	4.7132	999	0	0	0	0	;
	119	117	10560	34.4784	3.085	999	0	0	0	0	;
	128	117	10560	164.5865	14.7268	999	0	0	0	0	;
	94	118	63360	318.1643	28.4686	999	0	0	0	0	;
	136	118	10560	189.549	16.9604	999	0	0	0	0	;
	138	118	63360	157.0537	14.0528	999	0	0	0	0	;
	117	119	10560	34.4784	3.085	999	0	0	0	0	;
	164	119	63360	243.6107	21.7977	999	0	0	0	0	;
	102	120	10560	177.6232	15.8933	999	0	0	0	0	;
	111	120	10560	101.2607	9.0606	999	0	0	0	0	;
	121	120	10560	15.5001	1.3869	999	0	0	0	0	;
	145	120	16896	207.2563	11.5905	999	0	0	0	0	;
	120	121	10560	15.5001	1.3869	999	0	0	0	0	;
	125	121	10560	57.7636	5.1685	999	0	0	0	0	;
	115	122	10560	154.7879	13.8501	999	0	0	0	0	;
	95	123	10560	270.5592	24.209	999	0	0	0	0	;
	170	123	10560	270.0743	24.1656	999	0	0	0	0	;
	180	123	10560	558.4018	49.9645	999	0	0	0	0	;
	129	124	10560	25.1813	2.2532	999	0	0	0	0	;
	168	124	59136	334.0865	21.3523	999	0	0	0	0	;
	121	125	10560	57.7636	5.1685	999	0	0	0	0	;
	126	125	10560	17.2958	1.5476	999	0	0	0	0	;
	125	126	10560	17.2958	1.5476	999	0	0	0	0	;
	133	126	10560	44.6428	3.9945	999	0	0	0	0	;
	160	126	10560	211.8468	18.9556	999	0	0	0	0	;
	161	126	16896	242.4597	21.6947	999	0	0	0	0	;
	112	127	10560	266.5553	23.8508	999	0	0	0	0	;
	146	127	10560	228.8987	20.4813	999	0	0	0	0	;
	154	127	10560	250.9221	22.4519	999	0	0	0	0	;
	117	128	10560	164.5865	14.7268	999	0	0	0	0	;
	134	128	10560	53.2086	4.761	999	0	0	0	0	;
	116	129	59136	162.0232	10.3553	999	0	0	0	0	;
	124	129	10560	25.1813	2.2532	999	0	0	0	0	;
	141	129	10560	58.1992	5.2075	999	0	0	0	0	;
	109	130	10560	152.0484	13.6049	999	0	0	0	0	;
	138	130	10560	67.4094	6.0316	999	0	0	0	0	;
	95	131	10560	556.4883	49.7933	999	0	0	0	0	;
	99	131	10560	275.8397	24.6815	999	0	0	0	0	;
	103	132	10560	325.5176	29.1266	999	0	0	0	0	;
	147	132	10560	147.3545	13.1849	999	0	0	0	0	;
	126	133	10560	44.6428	3.9945	999	0	0	0	0	;
	140	133	10560	63.8361	5.7119	999	0	0	0	0	;
	128	134	10560	53.2086	4.761	999	0	0	0	0	;
	137	134	10560	23.5967	2.1114	999	0	0	0	0	;
	131	135	10560	29.0121	2.5959	999	0	0	0	0	;
	100	136	10560	313.6453	28.0643	999	0	0	0	0	;
	150	136	10560	125.8612	11.2618	999	0	0	0	0	;
	134	137	10560	23.5967	2.1114	999	0	0	0	0	;
	151	137	10560	156.5689	14.0094	999	0	0	0	0	;
	189	137	10560	276.4375	24.735	999	0	0	0	0	;
	118	138	63360	157.0537	14.0528	999	0	0	0	0	;
	148	138	63360	66.8879	5.985	999	0	0	0	0	;
	165	138	10560	218.1396	19.5186	999	0	0	0	0	;
	122	139	10560	146.864	13.1411	999	0	0	0	0	;
	133	140	10560	63.8361	5.7119	999	0	0	0	0	;
	152	140	10560	106.0421	9.4884	999	0	0	0	0	;
	129	141	10560	58.1992	5.2075	999	0	0	0	0	;
	176	141	10560	204.6993	18.316	999	0	0	0	0	;
	101	142	10560	523.9589	46.8826	999	0	0	0	0	;
	130	142	10560	69.647	6.2318	999	0	0	0	0	;
	125	143	10560	126.1332	11.2861	999	0	0	0	0	;
	98	144	10560	393.3574	35.1967	999	0	0	0	0	;
	120	144	10560	220.4392	19.7244	999	0	0	0	0	;
	158	144	10560	72.2536	6.4651	999	0	0	0	0	;
	114	145	16896	269.0735	15.0475	999	0	0	0	0	;
	127	146	10560	228.8987	20.4813	999	0	0	0	0	;
	156	146	10560	119.9589	10.7336	999	0	0	0	0	;
	104	147	10560	289.1113	25.869	999	0	0	0	0	;
	132	147	10560	147.3545	13.1849	999	0	0	0	0	;
	149	147	10560	15.2464	1.3642	999	0	0	0	0	;
	138	148	63360	66.8879	5.985	999	0	0	0	0	;
	142	148	10560	51.7294	4.6286	999	0	0	0	0	;
	169	148	63360	152.8534	13.677	999	0	0	0	0	;
	147	149	10560	15.2464	1.3642	999	0	0	0	0	;
	210	149	10560	314.3362	28.1261	999	0	0	0	0	;
	179	150	10560	161.7766	14.4754	999	0	0	0	0	;
	208	150	10560	474.358	42.4444	999	0	0	0	0	;
	137	151	10560	156.5689	14.0094	999	0	0	0	0	;
	163	151	10560	77.181	6.906	999	0	0	0	0	;
	140	152	10560	106.0421	9.4884	999	0	0	0	0	;
	177	152	10560	204.5231	18.3003	999	0	0	0	0	;
	290	152	10560	607.6372	54.37	999	0	0	0	0	;
	135	153	10560	85.1597	7.6199	999	0	0	0	0	;
	157	153	10560	48.2248	4.315	999	0	0	0	0	;
	110	154	10560	274.7595	24.5848	999	0	0	0	0	;
	207	154	10560	274.3806	24.5509	999	0	0	0	0	;
	222	154	10560	704.271	63.0165	999	0	0	0	0	;
	139	155	10560	150.2774	13.4465	999	0	0	0	0	;
	105	156	10560	651.7992	58.3215	999	0	0	0	0	;
	113	156	10560	648.5344	58.0294	999	0	0	0	0	;
	146	156	10560	119.9589	10.7336	999	0	0	0	0	;
	159	157	10560	7.8072	0.69857	999	0	0	0	0	;
	183	157	33792	282.4563	15.796	999	0	0	0	0	;
	212	157	16896	406.2748	22.7203	999	0	0	0	0	;
	143	158	10560	120.7485	10.8043	999	0	0	0	0	;
	144	158	10560	72.2536	6.4651	999	0	0	0	0	;
	166	158	10560	46.8567	4.1926	999	0	0	0	0	;
	153	159	10560	48.2142	4.3141	999	0	0	0	0	;
	184	159	10560	171.1674	15.3157	999	0	0	0	0	;
	191	159	10560	161.4668	14.4477	999	0	0	0	0	;
	162	160	10560	10.3004	0.92166	999	0	0	0	0	;
	206	161	16896	216.1344	12.087	999	0	0	0	0	;
	160	162	10560	10.3004	0.92166	999	0	0	0	0	;
	166	162	10560	31.9537	2.8591	999	0	0	0	0	;
	186	162	10560	123.2151	11.025	999	0	0	0	0	;
	116	163	10560	271.3053	24.2758	999	0	0	0	0	;
	151	163	10560	77.181	6.906	999	0	0	0	0	;
	176	163	10560	165.6732	14.824	999	0	0	0	0	;
	119	164	63360	243.6107	21.7977	999	0	0	0	0	;
	131	164	10560	318.6849	28.5152	999	0	0	0	0	;
	157	164	10560	261.5019	23.3986	999	0	0	0	0	;
	175	164	63360	66.5403	5.9539	999	0	0	0	0	;
	136	165	10560	161.5709	14.457	999	0	0	0	0	;
	179	165	10560	134.7252	12.0549	999	0	0	0	0	;
	158	166	10560	46.8567	4.1926	999	0	0	0	0	;
	162	166	10560	31.9537	2.8591	999	0	0	0	0	;
	186	166	10560	109.1011	9.7621	999	0	0	0	0	;
	155	167	10560	160.9549	14.4019	999	0	0	0	0	;
	202	168	10560	236.8094	21.1892	999	0	0	0	0	;
	204	168	59136	313.3563	20.0274	999	0	0	0	0	;
	142	169	10560	153.1199	13.7008	999	0	0	0	0	;
	148	169	63360	152.8534	13.677	999	0	0	0	0	;
	190	169	63360	77.5622	6.9401	999	0	0	0	0	;
	123	170	10560	270.0743	24.1656	999	0	0	0	0	;
	167	170	10560	45.4063	4.0629	999	0	0	0	0	;
	174	170	10560	8.4354	0.75478	999	0	0	0	0	;
	148	171	10560	230.7427	20.6463	999	0	0	0	0	;
	165	171	10560	53.6776	4.803	999	0	0	0	0	;
	177	172	10560	32.6152	2.9183	999	0	0	0	0	;
	181	172	10560	53.2047	4.7606	999	0	0	0	0	;
	129	173	59136	333.5972	21.3211	999	0	0	0	0	;
	168	173	10560	21.0618	1.8846	999	0	0	0	0	;
	203	173	10560	212.0262	18.9716	999	0	0	0	0	;
	167	174	10560	44.6341	3.9938	999	0	0	0	0	;
	170	174	10560	8.4354	0.75478	999	0	0	0	0	;
	219	174	10560	232.6251	20.8148	999	0	0	0	0	;
	164	175	63360	66.5403	5.9539	999	0	0	0	0	;
	182	175	63360	37.076	3.3175	999	0	0	0	0	;
	141	176	10560	204.6993	18.316	999	0	0	0	0	;
	198	176	10560	164.3979	14.7099	999	0	0	0	0	;
	201	176	10560	106.9726	9.5717	999	0	0	0	0	;
	152	177	10560	204.5231	18.3003	999	0	0	0	0	;
	172	177	10560	32.6152	2.9183	999	0	0	0	0	;
	128	178	10560	277.459	24.8264	999	0	0	0	0	;
	164	178	10560	163.808	14.6572	999	0	0	0	0	;
	187	179	10560	67.2301	6.0156	999	0	0	0	0	;
	192	179	10560	52.2177	4.6723	999	0	0	0	0	;
	135	180	10560	243.7898	21.8137	999	0	0	0	0	;
	153	180	10560	166.6871	14.9148	999	0	0	0	0	;
	184	180	10560	21.1963	1.8966	999	0	0	0	0	;
	296	180	10560	551.4059	49.3385	999	0	0	0	0	;
	185	181	10560	14.3817	1.2868	999	0	0	0	0	;
	196	181	10560	65.3031	5.8432	999	0	0	0	0	;
	218	181	10560	321.6096	28.7769	999	0	0	0	0	;
	175	182	63360	37.076	3.3175	999	0	0	0	0	;
	194	182	63360	44.0183	3.9387	999	0	0	0	0	;
	232	183	33792	271.2853	15.1712	999	0	0	0	0	;
	191	184	10560	55.082	4.9286	999	0	0	0	0	;
	172	185	10560	52.2451	4.6748	999	0	0	0	0	;
	181	185	10560	14.3817	1.2868	999	0	0	0	0	;
	188	185	10560	25.2344	2.2579	999	0	0	0	0	;
	166	186	10560	109.1011	9.7621	999	0	0	0	0	;
	304	186	10560	505.0656	45.1921	999	0	0	0	0	;
	197	187	10560	35.8233	3.2054	999	0	0	0	0	;
	185	188	10560	25.2344	2.2579	999	0	0	0	0	;
	199	188	10560	41.1512	3.6821	999	0	0	0	0	;
	178	189	10560	78.113	6.9894	999	0	0	0	0	;
	245	189	10560	274.7362	24.5828	999	0	0	0	0	;
	169	190	63360	77.5622	6.9401	999	0	0	0	0	;
	195	190	63360	28.8141	2.5782	999	0	0	0	0	;
	193	191	10560	9.03	0.80798	999	0	0	0	0	;
	216	191	10560	241.6366	21.6211	999	0	0	0	0	;
	171	192	10560	137.8092	12.3308	999	0	0	0	0	;
	303	193	10560	542.2852	48.5224	999	0	0	0	0	;
	182	194	63360	44.0183	3.9387	999	0	0	0	0	;
	200	194	42240	58.8595	5.2666	999	0	0	0	0	;
	216	194	63360	124.4323	11.1339	999	0	0	0	0	;
	190	195	63360	28.8141	2.5782	999	0	0	0	0	;
	205	195	63360	50.3939	4.5091	999	0	0	0	0	;
	185	196	10560	66.3699	5.9386	999	0	0	0	0	;
	255	196	10560	314.8668	28.1735	999	0	0	0	0	;
	281	196	10560	389.6288	34.8631	999	0	0	0	0	;
	187	197	10560	35.8233	3.2054	999	0	0	0	0	;
	192	197	10560	71.4291	6.3913	999	0	0	0	0	;
	259	197	10560	303.2556	27.1346	999	0	0	0	0	;
	203	198	10560	79.8004	7.1403	999	0	0	0	0	;
	188	199	10560	41.1512	3.6821	999	0	0	0	0	;
	284	199	10560	386.7017	34.6012	999	0	0	0	0	;
	194	200	42240	58.8595	5.2666	999	0	0	0	0	;
	212	200	31680	103.3868	9.2508	999	0	0	0	0	;
	176	201	10560	106.9726	9.5717	999	0	0	0	0	;
	227	201	10560	168.8594	15.1091	999	0	0	0	0	;
	173	202	59136	235.8044	15.0709	999	0	0	0	0	;
	241	202	10560	198.7233	17.7813	999	0	0	0	0	;
	198	203	10560	79.8004	7.1403	999	0	0	0	0	;
	214	203	10560	80.1991	7.176	999	0	0	0	0	;
	260	203	10560	275.6676	24.6661	999	0	0	0	0	;
	242	204	59136	325.0537	20.775	999	0	0	0	0	;
	195	205	63360	50.3939	4.5091	999	0	0	0	0	;
	218	205	63360	76.2744	6.8249	999	0	0	0	0	;
	519	206	50688	1393.8752	77.9504	999	0	0	0	0	;
	154	207	10560	274.3806	24.5509	999	0	0	0	0	;
	156	207	10560	469.0959	41.9736	999	0	0	0	0	;
	269	207	10560	311.464	27.8691	999	0	0	0	0	;
	147	208	10560	316.148	28.2882	999	0	0	0	0	;
	210	208	10560	15.6972	1.4046	999	0	0	0	0	;
	223	209	33792	120.95	6.764	999	0	0	0	0	;
	156	210	10560	936.8553	83.8276	999	0	0	0	0	;
	217	210	42240	53.4126	4.7792	999	0	0	0	0	;
	269	210	10560	1194.795	106.9075	999	0	0	0	0	;
	331	210	10560	1150.6122	102.9541	999	0	0	0	0	;
	202	211	59136	78.8283	5.0381	999	0	0	0	0	;
	204	211	10560	20.8102	1.8621	999	0	0	0	0	;
	178	212	10560	150.1154	13.432	999	0	0	0	0	;
	232	212	16896	133.3887	7.4596	999	0	0	0	0	;
	196	213	10560	175.8024	15.7304	999	0	0	0	0	;
	173	214	10560	196.9811	17.6254	999	0	0	0	0	;
	203	214	10560	80.1991	7.176	999	0	0	0	0	;
	225	214	10560	159.049	14.2313	999	0	0	0	0	;
	200	215	10560	106.8243	9.5584	999	0	0	0	0	;
	212	215	10560	25.1784	2.2529	999	0	0	0	0	;
	194	216	63360	124.4323	11.1339	999	0	0	0	0	;
	230	216	42240	162.227	14.5157	999	0	0	0	0	;
	272	216	63360	277.1463	24.7984	999	0	0	0	0	;
	210	217	42240	53.4126	4.7792	999	0	0	0	0	;
	234	217	31680	73.7008	6.5946	999	0	0	0	0	;
	205	218	63360	76.2744	6.8249	999	0	0	0	0	;
	213	218	10560	89.6138	8.0184	999	0	0	0	0	;
	221	218	10560	49.5122	4.4302	999	0	0	0	0	;
	228	218	10560	58.6572	5.2485	999	0	0	0	0	;
	174	219	10560	232.6251	20.8148	999	0	0	0	0	;
	222	219	10560	41.7479	3.7355	999	0	0	0	0	;
	189	220	10560	316.5987	28.3285	999	0	0	0	0	;
	253	220	10560	147.4686	13.1951	999	0	0	0	0	;
	218	221	10560	49.5122	4.4302	999	0	0	0	0	;
	226	221	10560	69.1781	6.1899	999	0	0	0	0	;
	228	221	10560	76.945	6.8849	999	0	0	0	0	;
	219	222	10560	41.7479	3.7355	999	0	0	0	0	;
	224	222	10560	6.7432	0.60336	999	0	0	0	0	;
	229	222	10560	42.4143	3.7951	999	0	0	0	0	;
	209	223	33792	120.95	6.764	999	0	0	0	0	;
	235	223	33792	32.5158	1.8184	999	0	0	0	0	;
	222	224	10560	6.7432	0.60336	999	0	0	0	0	;
	229	224	10560	42.94	3.8422	999	0	0	0	0	;
	237	224	10560	31.5646	2.8243	999	0	0	0	0	;
	214	225	10560	159.049	14.2313	999	0	0	0	0	;
	233	225	10560	29.8395	2.67	999	0	0	0	0	;
	221	226	10560	69.1781	6.1899	999	0	0	0	0	;
	247	226	10560	149.2184	13.3517	999	0	0	0	0	;
	201	227	10560	168.8594	15.1091	999	0	0	0	0	;
	220	227	10560	81.9697	7.3345	999	0	0	0	0	;
	263	227	10560	148.4583	13.2837	999	0	0	0	0	;
	238	228	10560	58.7963	5.261	999	0	0	0	0	;
	244	228	10560	48.2435	4.3167	999	0	0	0	0	;
	266	229	10560	277.3192	24.8139	999	0	0	0	0	;
	215	230	10560	96.9432	8.6743	999	0	0	0	0	;
	240	230	42240	46.8438	4.1915	999	0	0	0	0	;
	197	231	10560	432.9111	38.7359	999	0	0	0	0	;
	208	231	31680	125.7076	11.248	999	0	0	0	0	;
	239	232	33792	83.1428	4.6496	999	0	0	0	0	;
	225	233	10560	29.8395	2.67	999	0	0	0	0	;
	236	233	10560	19.7967	1.7714	999	0	0	0	0	;
	217	234	31680	73.7008	6.5946	999	0	0	0	0	;
	231	234	10560	15.4633	1.3836	999	0	0	0	0	;
	286	234	31680	245.4496	21.9623	999	0	0	0	0	;
	223	235	33792	32.5158	1.8184	999	0	0	0	0	;
	239	235	33792	19.1611	1.0716	999	0	0	0	0	;
	233	236	10560	19.7967	1.7714	999	0	0	0	0	;
	241	236	10560	27.69	2.4776	999	0	0	0	0	;
	224	237	10560	31.5646	2.8243	999	0	0	0	0	;
	282	237	10560	236.1526	21.1304	999	0	0	0	0	;
	218	238	10560	108.3106	9.6914	999	0	0	0	0	;
	251	238	10560	135.5137	12.1255	999	0	0	0	0	;
	235	239	33792	19.1611	1.0716	999	0	0	0	0	;
	243	239	33792	41.3739	2.3138	999	0	0	0	0	;
	245	240	63360	31.4317	2.8124	999	0	0	0	0	;
	236	241	10560	27.69	2.4776	999	0	0	0	0	;
	250	241	10560	79.0471	7.0729	999	0	0	0	0	;
	300	241	10560	274.5388	24.5651	999	0	0	0	0	;
	256	242	50688	294.5263	18.824	999	0	0	0	0	;
	159	243	33792	586.8927	32.8211	999	0	0	0	0	;
	215	243	16896	178.7709	9.9975	999	0	0	0	0	;
	240	243	16896	138.8651	7.7658	999	0	0	0	0	;
	249	244	10560	74.1978	6.639	999	0	0	0	0	;
	277	245	42240	322.8171	28.8849	999	0	0	0	0	;
	301	245	10560	274.3834	24.5512	999	0	0	0	0	;
	211	246	59136	324.9206	20.7665	999	0	0	0	0	;
	242	246	10560	20.8365	1.8644	999	0	0	0	0	;
	283	246	31680	198.3337	17.7464	999	0	0	0	0	;
	171	247	10560	346.6787	31.02	999	0	0	0	0	;
	226	247	10560	149.2184	13.3517	999	0	0	0	0	;
	258	247	10560	190.6641	17.0602	999	0	0	0	0	;
	246	248	59136	8.8851	0.56787	999	0	0	0	0	;
	244	249	10560	74.1978	6.639	999	0	0	0	0	;
	265	249	10560	198.0668	17.7226	999	0	0	0	0	;
	211	250	31680	196.3997	17.5734	999	0	0	0	0	;
	241	250	10560	79.0471	7.0729	999	0	0	0	0	;
	252	250	10560	36.8771	3.2997	999	0	0	0	0	;
	238	251	10560	135.5137	12.1255	999	0	0	0	0	;
	250	252	10560	36.8771	3.2997	999	0	0	0	0	;
	254	252	10560	18.4337	1.6494	999	0	0	0	0	;
	209	253	10560	218.9122	19.5878	999	0	0	0	0	;
	277	253	10560	127.2606	11.387	999	0	0	0	0	;
	252	254	10560	18.4337	1.6494	999	0	0	0	0	;
	257	254	10560	26.5647	2.377	999	0	0	0	0	;
	244	255	10560	61.5229	5.5049	999	0	0	0	0	;
	267	255	10560	42.4155	3.7952	999	0	0	0	0	;
	441	256	16896	1723.7034	96.3956	999	0	0	0	0	;
	464	256	50688	1929.2083	107.8882	999	0	0	0	0	;
	254	257	10560	26.5647	2.377	999	0	0	0	0	;
	268	257	10560	76.7268	6.8653	999	0	0	0	0	;
	247	258	10560	190.6641	17.0602	999	0	0	0	0	;
	259	258	10560	27.8789	2.4945	999	0	0	0	0	;
	197	259	10560	303.2556	27.1346	999	0	0	0	0	;
	262	259	10560	13.9703	1.25	999	0	0	0	0	;
	285	259	10560	433.7366	38.8097	999	0	0	0	0	;
	227	260	10560	244.5129	21.8784	999	0	0	0	0	;
	317	260	10560	274.5243	24.5638	999	0	0	0	0	;
	258	261	10560	21.5796	1.9309	999	0	0	0	0	;
	259	261	10560	13.4601	1.2044	999	0	0	0	0	;
	261	262	10560	9.8243	0.87906	999	0	0	0	0	;
	280	262	10560	99.6231	8.914	999	0	0	0	0	;
	227	263	10560	148.4583	13.2837	999	0	0	0	0	;
	253	263	10560	77.9242	6.9725	999	0	0	0	0	;
	288	263	10560	126.1641	11.2889	999	0	0	0	0	;
	248	264	14784	232.5014	14.8598	999	0	0	0	0	;
	302	264	10560	183.4363	16.4135	999	0	0	0	0	;
	247	265	10560	90.1696	8.0682	999	0	0	0	0	;
	249	265	10560	198.0668	17.7226	999	0	0	0	0	;
	274	265	10560	46.7709	4.1849	999	0	0	0	0	;
	279	265	10560	210.0793	18.7974	999	0	0	0	0	;
	296	266	10560	235.1016	21.0363	999	0	0	0	0	;
	255	267	10560	42.4155	3.7952	999	0	0	0	0	;
	273	267	10560	36.4312	3.2598	999	0	0	0	0	;
	257	268	10560	76.7268	6.8653	999	0	0	0	0	;
	271	268	10560	42.2375	3.7793	999	0	0	0	0	;
	207	269	10560	311.464	27.8691	999	0	0	0	0	;
	309	269	10560	185.266	16.5772	999	0	0	0	0	;
	353	269	10560	703.8917	62.9826	999	0	0	0	0	;
	214	270	10560	274.9777	24.6044	999	0	0	0	0	;
	260	270	10560	80.4477	7.1983	999	0	0	0	0	;
	268	271	10560	42.2375	3.7793	999	0	0	0	0	;
	275	271	10560	38.3127	3.4281	999	0	0	0	0	;
	174	272	10560	876.3294	78.4119	999	0	0	0	0	;
	216	272	63360	277.1463	24.7984	999	0	0	0	0	;
	334	272	63360	274.529	24.5642	999	0	0	0	0	;
	267	273	10560	36.4312	3.2598	999	0	0	0	0	;
	287	273	10560	69.2286	6.1944	999	0	0	0	0	;
	265	274	10560	46.7709	4.1849	999	0	0	0	0	;
	276	274	10560	19.9544	1.7855	999	0	0	0	0	;
	271	275	10560	38.3127	3.4281	999	0	0	0	0	;
	278	275	10560	46.5024	4.1609	999	0	0	0	0	;
	338	275	10560	274.0316	24.5197	999	0	0	0	0	;
	274	276	10560	19.9544	1.7855	999	0	0	0	0	;
	314	276	10560	152.0896	13.6086	999	0	0	0	0	;
	288	277	42240	76.5137	6.8463	999	0	0	0	0	;
	275	278	10560	46.5024	4.1609	999	0	0	0	0	;
	283	278	10560	36.1243	3.2323	999	0	0	0	0	;
	261	279	10560	100.9378	9.0317	999	0	0	0	0	;
	265	279	10560	210.0793	18.7974	999	0	0	0	0	;
	280	279	10560	17.6432	1.5787	999	0	0	0	0	;
	279	280	10560	17.6432	1.5787	999	0	0	0	0	;
	322	280	10560	421.7116	37.7338	999	0	0	0	0	;
	336	280	10560	214.7435	19.2147	999	0	0	0	0	;
	287	281	10560	86.087	7.7029	999	0	0	0	0	;
	289	281	10560	20.0318	1.7924	999	0	0	0	0	;
	207	282	10560	703.4272	62.941	999	0	0	0	0	;
	237	282	10560	236.1526	21.1304	999	0	0	0	0	;
	353	282	10560	310.009	27.7389	999	0	0	0	0	;
	246	283	31680	198.3337	17.7464	999	0	0	0	0	;
	278	283	10560	36.1243	3.2323	999	0	0	0	0	;
	293	283	10560	47.4741	4.2479	999	0	0	0	0	;
	199	284	10560	386.7017	34.6012	999	0	0	0	0	;
	281	284	10560	58.6464	5.2475	999	0	0	0	0	;
	295	284	10560	21.7431	1.9455	999	0	0	0	0	;
	231	285	31680	249.7046	22.343	999	0	0	0	0	;
	286	285	10560	15.3661	1.3749	999	0	0	0	0	;
	234	286	31680	245.4496	21.9623	999	0	0	0	0	;
	294	286	31680	12.1701	1.089	999	0	0	0	0	;
	311	286	10560	332.0368	29.7099	999	0	0	0	0	;
	273	287	10560	69.2286	6.1944	999	0	0	0	0	;
	297	287	10560	23.6738	2.1183	999	0	0	0	0	;
	314	287	10560	273.4543	24.4681	999	0	0	0	0	;
	263	288	10560	126.1641	11.2889	999	0	0	0	0	;
	317	288	10560	244.5854	21.8849	999	0	0	0	0	;
	350	288	10560	274.2204	24.5366	999	0	0	0	0	;
	295	289	10560	58.2957	5.2162	999	0	0	0	0	;
	152	290	10560	607.6372	54.37	999	0	0	0	0	;
	284	290	10560	155.5971	13.9225	999	0	0	0	0	;
	299	290	10560	24.9712	2.2344	999	0	0	0	0	;
	262	291	10560	428.5038	38.3415	999	0	0	0	0	;
	285	291	31680	12.0993	1.0826	999	0	0	0	0	;
	230	292	10560	276.9403	24.78	999	0	0	0	0	;
	272	292	31680	162.8102	14.5679	999	0	0	0	0	;
	283	293	10560	47.4741	4.2479	999	0	0	0	0	;
	298	293	10560	28.6205	2.5609	999	0	0	0	0	;
	286	294	31680	12.1701	1.089	999	0	0	0	0	;
	291	294	10560	16.0799	1.4388	999	0	0	0	0	;
	316	294	31680	114.0595	10.2058	999	0	0	0	0	;
	284	295	10560	21.7431	1.9455	999	0	0	0	0	;
	299	295	10560	156.713	14.0223	999	0	0	0	0	;
	343	295	10560	194.9755	17.446	999	0	0	0	0	;
	180	296	10560	551.4059	49.3385	999	0	0	0	0	;
	266	296	10560	235.1016	21.0363	999	0	0	0	0	;
	303	296	10560	80.1113	7.1682	999	0	0	0	0	;
	352	296	10560	274.5823	24.569	999	0	0	0	0	;
	287	297	10560	23.6738	2.1183	999	0	0	0	0	;
	289	297	10560	76.0269	6.8027	999	0	0	0	0	;
	321	297	10560	113.537	10.159	999	0	0	0	0	;
	293	298	10560	28.6205	2.5609	999	0	0	0	0	;
	305	298	10560	79.7906	7.1395	999	0	0	0	0	;
	290	299	10560	24.9712	2.2344	999	0	0	0	0	;
	307	299	10560	295.6441	26.4535	999	0	0	0	0	;
	270	300	10560	236.1177	21.1273	999	0	0	0	0	;
	355	300	10560	274.403	24.5529	999	0	0	0	0	;
	292	301	31680	77.8286	6.9639	999	0	0	0	0	;
	358	301	10560	274.057	24.522	999	0	0	0	0	;
	264	302	10560	183.4363	16.4135	999	0	0	0	0	;
	315	302	10560	57.184	5.1167	999	0	0	0	0	;
	193	303	10560	542.2852	48.5224	999	0	0	0	0	;
	296	303	10560	80.1113	7.1682	999	0	0	0	0	;
	312	303	10560	76.915	6.8822	999	0	0	0	0	;
	360	303	10560	275.5283	24.6536	999	0	0	0	0	;
	186	304	10560	505.0656	45.1921	999	0	0	0	0	;
	290	304	10560	298.4444	26.7041	999	0	0	0	0	;
	307	304	10560	15.5241	1.3891	999	0	0	0	0	;
	298	305	10560	79.7906	7.1395	999	0	0	0	0	;
	308	305	10560	25.9234	2.3196	999	0	0	0	0	;
	250	306	31680	275.1926	24.6236	999	0	0	0	0	;
	300	306	10560	79.4192	7.1062	999	0	0	0	0	;
	304	307	10560	15.5241	1.3891	999	0	0	0	0	;
	429	307	10560	570.4604	51.0435	999	0	0	0	0	;
	305	308	10560	25.9234	2.3196	999	0	0	0	0	;
	310	308	10560	19.5964	1.7534	999	0	0	0	0	;
	269	309	10560	185.266	16.5772	999	0	0	0	0	;
	331	309	10560	90.3579	8.085	999	0	0	0	0	;
	362	309	10560	717.3788	64.1894	999	0	0	0	0	;
	308	310	10560	19.5964	1.7534	999	0	0	0	0	;
	315	310	10560	39.0807	3.4969	999	0	0	0	0	;
	313	311	10560	46.6031	4.1699	999	0	0	0	0	;